tools/germany_pcm_case_related/raw_sources/osm_europe_grid/transformers.csv
transformer_id,bus0,bus1,voltage_bus0,voltage_bus1,s_nom,geometry
relation/10153505-400-132,relation/10153505-400,relation/10153505-132,400,132,8938,'LINESTRING (12.96120756 59.38843251, 12.96081909 59.38824981)'
relation/10175479-300-132,relation/10175479-300,relation/10175479-132,300,132,2011,'LINESTRING (6.45395258 58.29514278, 6.4536106 58.29494282)'
relation/10308957-300-132,relation/10308957-300,relation/10308957-132,300,132,5028,'LINESTRING (10.72098233 59.95816205, 10.72059958 59.95797311)'
relation/10377509-400-132,relation/10377509-400,relation/10377509-132,400,132,3575,'LINESTRING (-3.05075259 55.03299641, -3.05101835 55.03277507)'
relation/10695345-400-132,relation/10695345-400,relation/10695345-132,400,132,1788,'LINESTRING (1.34666458 51.31020638, 1.34639802 51.30999471)'
relation/10925187-275-132,relation/10925187-275,relation/10925187-132,275,132,1844,'LINESTRING (-1.49517472 53.77780995, -1.49544134 53.77759196)'
relation/11036958-420-300,relation/11036958-420,relation/11036958-300,420,300,5631,'LINESTRING (6.67108467 59.48467757, 6.67072995 59.48447803)'
relation/11051275-400-132,relation/11051275-400,relation/11051275-132,400,132,3575,'LINESTRING (-2.67033299 54.29776336, -2.67059652 54.29754286)'
relation/11097406-400-132,virtual_relation/5963403:0-400,relation/11097406-132,400,132,1788,'LINESTRING (11.73499814 58.83726571, 11.73468881 58.83743491)'
relation/11097406-420-132,relation/11097406-420,relation/11097406-132,420,132,1877,'LINESTRING (11.7351254 58.83748987, 11.73468881 58.83743491)'
relation/11097406-420-400,relation/11097406-420,virtual_relation/5963403:0-400,420,400,1877,'LINESTRING (11.7351254 58.83748987, 11.73499814 58.83726571)'
relation/11278540-400-225,relation/11278540-400,relation/11278540-225,400,225,14300,'LINESTRING (4.7150552 44.32959535, 4.71480804 44.32939109)'
relation/11520073-420-132,virtual_way/548201574:1-420,relation/11520073-132,420,132,7508,'LINESTRING (5.3029065 61.77161738, 5.30253548 61.77141408)'
relation/11543333-400-132,relation/11543333-400,relation/11543333-132,400,132,3575,'LINESTRING (-1.55449468 54.70549839, -1.55476643 54.7052802)'
relation/11568632-420-132,relation/11568632-420,relation/11568632-132,420,132,3754,'LINESTRING (9.47688263 59.12896837, 9.47651579 59.12877615)'
relation/11964241-400-132,relation/11964241-400,relation/11964241-132,400,132,8938,'LINESTRING (12.21483209 58.29429337, 12.21445943 58.29410864)'
relation/11971282-400-132,relation/11971282-400,virtual_way/309145397:0-132,400,132,3575,'LINESTRING (16.45591501 62.41934913, 16.45546782 62.41917644)'
relation/12543034-275-132,relation/12543034-275,relation/12543034-132,275,132,2766,'LINESTRING (-3.29919116 51.57454936, -3.2994374 51.57432775)'
relation/12884169-150-132,relation/12884169-150,relation/12884169-132,150,132,503,'LINESTRING (14.20760197 42.44060866, 14.2073319 42.44042809)'
relation/13020240-220-150,relation/13020240-220,relation/13020240-150,220,150,984,'LINESTRING (12.47834558 41.86823275, 12.47808336 41.86804746)'
relation/13110367-400-132,relation/13110367-400,virtual_way/940773320:1-132,400,132,3575,'LINESTRING (-4.98948174 51.68238463, -4.98981825 51.68227956)'
relation/13260100-400-225,relation/13260100-400,relation/13260100-225,400,225,3575,'LINESTRING (0.14986633 49.47483792, 0.14961434 49.47462362)'
relation/13447790-420-132,relation/13447790-420,relation/13447790-132,420,132,3754,'LINESTRING (6.01633754 61.44636898, 6.01596572 61.44616752)'
relation/13534535-420-132,relation/13534535-420,relation/13534535-132,420,132,3754,'LINESTRING (11.68739604 63.03005607, 11.68696835 63.02986948)'
relation/13889505-400-220,relation/13889505-400,relation/13889505-220,400,220,12513,'LINESTRING (17.10352552 63.17650588, 17.10306294 63.1763351)'
relation/14921826-275-132,relation/14921826-275,relation/14921826-132,275,132,1033,'LINESTRING (-2.9618497 54.94244332, -2.96218455 54.94257578)'
relation/14921826-400-132,relation/14921826-400,relation/14921826-132,400,132,3575,'LINESTRING (-2.96181784 54.94267542, -2.96218455 54.94257578)'
relation/14921826-400-275,relation/14921826-400,relation/14921826-275,400,275,3575,'LINESTRING (-2.96181784 54.94267542, -2.9618497 54.94244332)'
relation/15657011-400-220,relation/15657011-400,relation/15657011-220,400,220,1788,'LINESTRING (14.62818681 62.48943528, 14.62774915 62.48925717)'
relation/15715982-400-220,relation/15715982-400,relation/15715982-220,400,220,1788,'LINESTRING (-6.80632931 41.04389548, -6.80652483 41.0436666)'
relation/16809528-400-220,relation/16809528-400,relation/16809528-220,400,220,5363,'LINESTRING (1.90250998 41.3555249, 1.90228354 41.35531385)'
relation/17148268-400-220,relation/17148268-400,relation/17148268-220,400,220,14300,'LINESTRING (-5.69312627 39.80748631, -5.6933227 39.80725935)'
relation/17239840-150-132,relation/17239840-150,relation/17239840-132,150,132,671,'LINESTRING (14.1294368 42.40337311, 14.12954333 42.40351082)'
relation/17239840-220-132,virtual_way/158652471:1-220,relation/17239840-132,220,132,590,'LINESTRING (14.12957988 42.4032545, 14.12954333 42.40351082)'
relation/17239840-220-150,virtual_way/158652471:1-220,relation/17239840-150,220,150,671,'LINESTRING (14.12957988 42.4032545, 14.1294368 42.40337311)'
relation/17239840-380-132,relation/17239840-380,relation/17239840-132,380,132,6793,'LINESTRING (14.12977483 42.40331892, 14.12954333 42.40351082)'
relation/17239840-380-150,relation/17239840-380,relation/17239840-150,380,150,6793,'LINESTRING (14.12977483 42.40331892, 14.1294368 42.40337311)'
relation/17239840-380-220,relation/17239840-380,virtual_way/158652471:1-220,380,220,6793,'LINESTRING (14.12977483 42.40331892, 14.12957988 42.4032545)'
relation/17294958-400-220,virtual_way/144385775:1-400,relation/17294958-220,400,220,1788,'LINESTRING (-6.47265148 41.30157275, -6.47284882 41.30134453)'
relation/17294973-400-150,relation/17294973-400,relation/17294973-150,400,150,5363,'LINESTRING (-8.80319209 37.93054576, -8.8033741 37.93031276)'
relation/17319555-220-132,relation/17319555-220,virtual_way/171642116:1-132,220,132,1967,'LINESTRING (-0.45728437 39.14976406, -0.45749636 39.14954754)'
relation/17467354-380-150,relation/17467354-380,virtual_way/76704452:0-150,380,150,3397,'LINESTRING (12.32688817 41.87724413, 12.32662637 41.87705844)'
relation/17678185-220-132,relation/17678185-220,relation/17678185-132,220,132,1475,'LINESTRING (0.73929959 42.40332084, 0.7390736 42.40310737)'
relation/18111284-220-132,virtual_way/57814828:1-220,relation/18111284-132,220,132,492,'LINESTRING (7.96677235 47.54168527, 7.96649836 47.54148918)'
relation/18292370-300-132,virtual_way/641064271:1-300,relation/18292370-132,300,132,2011,'LINESTRING (6.75332871 58.66980214, 6.75331131 58.66999269)'
relation/18292370-420-132,relation/18292370-420,relation/18292370-132,420,132,7508,'LINESTRING (6.75369328 58.66981083, 6.75331131 58.66999269)'
relation/18292370-420-300,relation/18292370-420,virtual_way/641064271:1-300,420,300,7508,'LINESTRING (6.75369328 58.66981083, 6.75332871 58.66980214)'
relation/18667238-300-132,relation/18667238-300,relation/18667238-132,300,132,3017,'LINESTRING (9.54352955 59.27271093, 9.5432059 59.27287513)'
relation/18667238-420-132,relation/18667238-420,relation/18667238-132,420,132,5631,'LINESTRING (9.54364426 59.27293707, 9.5432059 59.27287513)'
relation/18667238-420-300,relation/18667238-420,relation/18667238-300,420,300,5631,'LINESTRING (9.54364426 59.27293707, 9.54352955 59.27271093)'
relation/19169705-145-132,virtual_way/1389337285:0-145,relation/19169705-132,145,132,443,'LINESTRING (-2.89038884 54.03244611, -2.89025839 54.03255657)'
relation/19169705-170-132,virtual_way/1389288105:1-170,relation/19169705-132,170,132,443,'LINESTRING (-2.8902906 54.0323245, -2.89025839 54.03255657)'
relation/19169705-170-145,virtual_way/1389288105:1-170,virtual_way/1389337285:0-145,170,145,190,'LINESTRING (-2.8902906 54.0323245, -2.89038884 54.03244611)'
relation/19169705-220-132,virtual_way/636036442:0-220,relation/19169705-132,220,132,492,'LINESTRING (-2.88993146 54.03242381, -2.89025839 54.03255657)'
relation/19169705-220-145,virtual_way/636036442:0-220,virtual_way/1389337285:0-145,220,145,492,'LINESTRING (-2.88993146 54.03242381, -2.89038884 54.03244611)'
relation/19169705-220-170,virtual_way/636036442:0-220,virtual_way/1389288105:1-170,220,170,492,'LINESTRING (-2.88993146 54.03242381, -2.8902906 54.0323245)'
relation/19169705-400-132,relation/19169705-400,relation/19169705-132,400,132,10725,'LINESTRING (-2.8900297 54.03254542, -2.89025839 54.03255657)'
relation/19169705-400-145,relation/19169705-400,virtual_way/1389337285:0-145,400,145,10725,'LINESTRING (-2.8900297 54.03254542, -2.89038884 54.03244611)'
relation/19169705-400-170,relation/19169705-400,virtual_way/1389288105:1-170,400,170,10725,'LINESTRING (-2.8900297 54.03254542, -2.8902906 54.0323245)'
relation/19169705-400-220,relation/19169705-400,virtual_way/636036442:0-220,400,220,10725,'LINESTRING (-2.8900297 54.03254542, -2.88993146 54.03242381)'
relation/19396462-400-132,relation/19396462-400,relation/19396462-132,400,132,3575,'LINESTRING (0.00972139 51.75885089, 0.00945858 51.75863624)'
relation/19581815-300-132,relation/19581815-300,relation/19581815-132,300,132,2011,'LINESTRING (11.00439178 63.44830169, 11.00396235 63.44811315)'
relation/19897532-275-132,relation/19897532-275,relation/19897532-132,275,132,2766,'LINESTRING (-2.97721976 51.54771395, -2.97746741 51.547493)'
relation/2452471-275-132,relation/2452471-275,relation/2452471-132,275,132,922,'LINESTRING (-3.86058799 56.00768827, -3.8608551 56.00746517)'
relation/2820883-220-132,virtual_way/131293965:0-220,relation/2820883-132,220,132,1967,'LINESTRING (10.99024533 45.75689414, 10.98992214 45.75683657)'
relation/3184141-380-132,relation/3184141-380,relation/3184141-132,380,132,6793,'LINESTRING (9.1320186 45.34447137, 9.13175137 45.344278)'
relation/4741777-220-132,virtual_way/41936332:0-220,relation/4741777-132,220,132,2458,'LINESTRING (9.45292952 45.65651891, 9.4526925 45.65668321)'
relation/4741777-380-132,relation/4741777-380,relation/4741777-132,380,132,5095,'LINESTRING (9.45301341 45.65674545, 9.4526925 45.65668321)'
relation/4741777-380-220,relation/4741777-380,virtual_way/41936332:0-220,380,220,5095,'LINESTRING (9.45301341 45.65674545, 9.45292952 45.65651891)'
relation/5378910-220-132,relation/5378910-220,relation/5378910-132,220,132,984,'LINESTRING (7.19053313 46.97455634, 7.19026494 46.97435828)'
relation/6277789-220-132,virtual_way/131290697:0-220,relation/6277789-132,220,132,984,'LINESTRING (10.26410235 45.57920396, 10.26386812 45.57937007)'
relation/6277789-380-132,relation/6277789-380,relation/6277789-132,380,132,5095,'LINESTRING (10.26418948 45.57942986, 10.26386812 45.57937007)'
relation/6277789-380-220,relation/6277789-380,virtual_way/131290697:0-220,380,220,5095,'LINESTRING (10.26418948 45.57942986, 10.26410235 45.57920396)'
relation/7107330-220-132,relation/7107330-220,virtual_way/996227052:0-132,220,132,984,'LINESTRING (16.27603916 60.53319107, 16.27561921 60.53301791)'
relation/7123679-220-132,relation/7123679-220,relation/7123679-132,220,132,984,'LINESTRING (16.71034403 60.94233368, 16.70991636 60.9421618)'
relation/7313829-400-220,relation/7313829-400,relation/7313829-220,400,220,10725,'LINESTRING (16.99035258 60.60423703, 16.98992794 60.604066)'
relation/7578992-380-220,relation/7578992-380,relation/7578992-220,380,220,2458,'LINESTRING (5.47196518 50.54040709, 5.47168476 50.54020502)'
relation/7650368-400-132,relation/7650368-400,relation/7650368-132,400,132,8938,'LINESTRING (-0.49986894 51.93313187, -0.50013029 51.93291611)'
relation/7805329-300-132,relation/7805329-300,virtual_way/638373397:0-132,300,132,2011,'LINESTRING (6.33124235 60.1323191, 6.33088296 60.13211862)'
relation/7839089-420-132,relation/7839089-420,relation/7839089-132,420,132,3754,'LINESTRING (7.11098617 62.85923324, 7.11059015 62.85903435)'
relation/7839720-300-132,relation/7839720-300,relation/7839720-132,300,132,2011,'LINESTRING (8.52315165 62.66367559, 8.52278689 62.66383764)'
relation/7839720-420-132,relation/7839720-420,relation/7839720-132,420,132,1877,'LINESTRING (8.52327124 62.66390299, 8.52278689 62.66383764)'
relation/7839720-420-300,relation/7839720-420,relation/7839720-300,420,300,2011,'LINESTRING (8.52327124 62.66390299, 8.52315165 62.66367559)'
relation/7842598-150-132,relation/7842598-150,relation/7842598-132,150,132,336,'LINESTRING (12.40847806 41.96647982, 12.40821562 41.96629436)'
relation/7851611-300-132,relation/7851611-300,relation/7851611-132,300,132,2011,'LINESTRING (9.07010428 60.60618368, 9.06972357 60.60599024)'
relation/7854485-420-300,relation/7854485-420,relation/7854485-300,420,300,3754,'LINESTRING (8.96206273 60.2670031, 8.96168649 60.26680941)'
relation/7871517-300-132,relation/7871517-300,relation/7871517-132,300,132,5028,'LINESTRING (9.84789821 59.71784421, 9.84752301 59.71765294)'
relation/7872518-400-132,relation/7872518-400,relation/7872518-132,400,132,3575,'LINESTRING (0.57589231 51.86608611, 0.57562627 51.8658727)'
relation/7879831-275-132,relation/7879831-275,relation/7879831-132,275,132,922,'LINESTRING (-3.95850201 51.68569825, -3.95881411 51.68582842)'
relation/7879831-400-132,relation/7879831-400,relation/7879831-132,400,132,7150,'LINESTRING (-3.95847537 51.68593055, -3.95881411 51.68582842)'
relation/7879831-400-275,relation/7879831-400,relation/7879831-275,400,275,7150,'LINESTRING (-3.95847537 51.68593055, -3.95850201 51.68569825)'
relation/7879878-420-132,relation/7879878-420,relation/7879878-132,420,132,3754,'LINESTRING (8.67856738 59.88418324, 8.67819698 59.88398884)'
relation/7880111-275-132,relation/7880111-275,relation/7880111-132,275,132,2766,'LINESTRING (-0.48376443 51.35055739, -0.48406348 51.35069691)'
relation/7880111-400-132,relation/7880111-400,relation/7880111-132,400,132,1788,'LINESTRING (-0.48372017 51.35078893, -0.48406348 51.35069691)'
relation/7880111-400-275,relation/7880111-400,relation/7880111-275,400,275,2766,'LINESTRING (-0.48372017 51.35078893, -0.48376443 51.35055739)'
relation/7881280-400-132,relation/7881280-400,relation/7881280-132,400,132,8938,'LINESTRING (-0.75579496 53.59819363, -0.75606427 53.59797723)'
relation/7886014-400-132,relation/7886014-400,relation/7886014-132,400,132,5363,'LINESTRING (-2.51246475 52.63218165, -2.51272005 52.6319616)'
relation/7894974-400-275,relation/7894974-400,relation/7894974-275,400,275,5363,'LINESTRING (-4.07977204 55.75191482, -4.07979737 55.75168255)'
relation/7894975-275-132,relation/7894975-275,relation/7894975-132,275,132,1844,'LINESTRING (-2.75709363 53.7446991, -2.75741778 53.74483226)'
relation/7894975-400-132,relation/7894975-400,relation/7894975-132,400,132,5363,'LINESTRING (-2.75706071 53.74493115, -2.75741778 53.74483226)'
relation/7894975-400-275,relation/7894975-400,relation/7894975-275,400,275,5363,'LINESTRING (-2.75706071 53.74493115, -2.75709363 53.7446991)'
relation/7901274-150-132,relation/7901274-150,relation/7901274-132,150,132,336,'LINESTRING (12.3883101 41.88035728, 12.3880481 41.88017175)'
relation/7910051-220-150,virtual_way/80517638:1-220,relation/7910051-150,220,150,984,'LINESTRING (12.54425937 41.96414106, 12.54399653 41.96395596)'
relation/7928148-420-132,relation/7928148-420,relation/7928148-132,420,132,5631,'LINESTRING (7.89985899 58.25982347, 7.89943588 58.25975639)'
relation/8087295-275-132,relation/8087295-275,relation/8087295-132,275,132,3687,'LINESTRING (-3.75335861 58.57587739, -3.75364325 58.57565414)'
relation/8206955-300-132,relation/8206955-300,relation/8206955-132,300,132,1006,'LINESTRING (10.57733935 60.28881915, 10.57695362 60.28862979)'
relation/8211981-300-132,relation/8211981-300,relation/8211981-132,300,132,1006,'LINESTRING (11.12215951 61.8130988, 11.12175193 61.81291079)'
relation/8269874-150-132,relation/8269874-150,relation/8269874-132,150,132,295,'LINESTRING (30.03394394 69.72301844, 30.03325198 69.72289111)'
relation/8473044-220-132,relation/8473044-220,relation/8473044-132,220,132,590,'LINESTRING (13.78252049 66.05088953, 13.78254815 66.05108092)'
relation/8473044-300-132,relation/8473044-300,relation/8473044-132,300,132,1006,'LINESTRING (13.78298429 66.05087911, 13.78254815 66.05108092)'
relation/8473044-300-220,relation/8473044-300,relation/8473044-220,300,220,1006,'LINESTRING (13.78298429 66.05087911, 13.78252049 66.05088953)'
relation/8473044-420-132,relation/8473044-420,relation/8473044-132,420,132,3754,'LINESTRING (13.78301196 66.0510705, 13.78254815 66.05108092)'
relation/8473044-420-220,relation/8473044-420,relation/8473044-220,420,220,3754,'LINESTRING (13.78301196 66.0510705, 13.78252049 66.05088953)'
relation/8473044-420-300,relation/8473044-420,relation/8473044-300,420,300,3754,'LINESTRING (13.78301196 66.0510705, 13.78298429 66.05087911)'
relation/8476872-300-132,relation/8476872-300,relation/8476872-132,300,132,2011,'LINESTRING (13.29085386 65.85209588, 13.29036954 65.8519135)'
relation/8482013-300-132,relation/8482013-300,relation/8482013-132,300,132,1006,'LINESTRING (12.79250175 65.20480162, 12.79203246 65.20461789)'
relation/8488332-300-132,relation/8488332-300,relation/8488332-132,300,132,2011,'LINESTRING (12.8370233 64.70403825, 12.8366578 64.70421066)'
relation/8488332-420-132,relation/8488332-420,relation/8488332-132,420,132,3754,'LINESTRING (12.83718633 64.7042621, 12.8366578 64.70421066)'
relation/8488332-420-300,relation/8488332-420,relation/8488332-300,420,300,3754,'LINESTRING (12.83718633 64.7042621, 12.8370233 64.70403825)'
relation/8520950-300-132,relation/8520950-300,relation/8520950-132,300,132,2011,'LINESTRING (10.44023039 63.39204367, 10.4398054 63.39185358)'
relation/8834935-300-132,relation/8834935-300,relation/8834935-132,300,132,2011,'LINESTRING (5.45712986 60.3947188, 5.45677295 60.3945161)'
relation/8836351-300-132,relation/8836351-300,relation/8836351-132,300,132,3017,'LINESTRING (5.34227381 60.28737254, 5.34191871 60.28716957)'
relation/8837899-300-132,relation/8837899-300,relation/8837899-132,300,132,2011,'LINESTRING (5.13270447 60.36580246, 5.13234983 60.36559896)'
relation/8860331-420-300,relation/8860331-420,relation/8860331-300,420,300,5028,'LINESTRING (6.41064014 59.6690976, 6.41028506 59.66889738)'
relation/8886202-300-132,relation/8886202-300,relation/8886202-132,300,132,3017,'LINESTRING (6.66436469 59.06034446, 6.66402977 59.06050175)'
relation/8886202-420-132,relation/8886202-420,relation/8886202-132,420,132,9385,'LINESTRING (6.66446008 59.06057274, 6.66402977 59.06050175)'
relation/8886202-420-300,relation/8886202-420,relation/8886202-300,420,300,9385,'LINESTRING (6.66446008 59.06057274, 6.66436469 59.06034446)'
relation/8894066-420-300,relation/8894066-420,relation/8894066-300,420,300,5631,'LINESTRING (6.84839074 58.27635466, 6.84804677 58.27615569)'
relation/9032385-300-132,relation/9032385-300,virtual_way/647107187:0-132,300,132,2011,'LINESTRING (10.66812794 59.93513618, 10.66774575 59.9349471)'
relation/9310861-220-150,relation/9310861-220,relation/9310861-150,220,150,984,'LINESTRING (8.57171965 47.41237194, 8.57144407 47.41217736)'
relation/9409219-400-132,relation/9409219-400,virtual_way/449377606:1-132,400,132,3575,'LINESTRING (-1.32859267 50.82168517, -1.32884451 50.82146768)'
relation/9552168-300-132,relation/9552168-300,relation/9552168-132,300,132,1006,'LINESTRING (8.9240774 60.25878014, 8.92370147 60.25858635)'
relation/9572254-400-132,relation/9572254-400,relation/9572254-132,400,132,5363,'LINESTRING (-4.89944894 50.3951782, -4.89968234 50.39495344)'
relation/9598269-275-132,relation/9598269-275,relation/9598269-132,275,132,1844,'LINESTRING (-2.04376112 53.49198333, -2.04408093 53.49211844)'
relation/9598269-400-132,relation/9598269-400,relation/9598269-132,400,132,3575,'LINESTRING (-2.04372435 53.49221523, -2.04408093 53.49211844)'
relation/9598269-400-275,relation/9598269-400,relation/9598269-275,400,275,3575,'LINESTRING (-2.04372435 53.49221523, -2.04376112 53.49198333)'
virtual_relation/10670456:0-380-150,virtual_relation/10670456:0-380,virtual_way/23141420:1-150,380,150,3397,'LINESTRING (5.54191352 50.92311655, 5.54163058 50.92291465)'
virtual_relation/18799873:a:0-380-220,virtual_way/1365778109:1-380,virtual_relation/18799873:a:0-220,380,220,1699,'LINESTRING (8.49124908 49.24522113, 8.49096373 49.24502648)'
virtual_relation/18799873:b:1-380-220,virtual_way/146633582:0-380,virtual_relation/18799873:b:1-220,380,220,3397,'LINESTRING (8.628955 49.33342375, 8.6286686 49.33322945)'
virtual_relation/5596469:c:1-400-220,virtual_relation/5596469:c:1-400,virtual_way/905049974:1-220,400,220,7150,'LINESTRING (18.12120404 53.12606248, 18.12085316 53.12589452)'
virtual_relation/5645821:1-380-220,virtual_way/1104719996:0-380,virtual_way/378945325:a:0-220,380,220,3397,'LINESTRING (8.98624254 47.1909667, 8.98596657 47.19077314)'
virtual_relation/6031720:b:1-220-132,virtual_relation/6031720:b:1-220,virtual_way/205799616:1-132,220,132,1967,'LINESTRING (7.91662908 47.30185352, 7.91635652 47.30165728)'
virtual_relation/6359580:b:1-400-380,virtual_relation/6359580:b:1-400,virtual_way/59099545:0-380,400,380,7150,'LINESTRING (7.44504663 45.59727888, 7.44478417 45.59708132)'
virtual_relation/6842817:0-220-132,virtual_way/1323461404:1-220,virtual_way/1323461404:1-132,220,132,492,'LINESTRING (-0.00322253 39.95866254, -0.00346079 39.9588054)'
virtual_relation/6842817:0-400-132,virtual_way/463302753:b:1-400,virtual_way/1323461404:1-132,400,132,7150,'LINESTRING (-0.00317983 39.95889553, -0.00346079 39.9588054)'
virtual_relation/6842817:0-400-220,virtual_way/463302753:b:1-400,virtual_way/1323461404:1-220,400,220,7150,'LINESTRING (-0.00317983 39.95889553, -0.00322253 39.95866254)'
virtual_relation/6848538:a:1-220-132,virtual_relation/6848538:a:1-220,virtual_way/446060449:1-132,220,132,1967,'LINESTRING (-0.07814492 39.96757729, -0.07836048 39.96736171)'
virtual_way/1000512859:0-420-132,virtual_way/1000512859:0-420,virtual_way/264541288:1-132,420,132,7508,'LINESTRING (6.2893857 58.99537078, 6.289038 58.99517033)'
virtual_way/1000512861:1-420-132,virtual_way/1000512861:1-420,virtual_way/258411629:0-132,420,132,7508,'LINESTRING (6.08872952 58.87070744, 6.08838416 58.8705065)'
virtual_way/1016396449:1-220-132,virtual_way/143483690:0-220,virtual_way/1016396449:1-132,220,132,1475,'LINESTRING (-7.94982541 42.35616599, -7.95001996 42.35593516)'
virtual_way/104614737:1-220-132,virtual_way/104614737:1-220,virtual_way/104864756:1-132,220,132,1475,'LINESTRING (8.36311494 46.29508846, 8.36284581 46.29489325)'
virtual_way/1050276660:1-400-220,virtual_way/1050276660:1-400,virtual_way/170000475:0-220,400,220,7150,'LINESTRING (18.12960662 53.10966591, 18.12925585 53.10949797)'
virtual_way/1056446755:1-220-145,virtual_way/1056446756:1-220,virtual_way/1056446755:1-145,220,145,492,'LINESTRING (16.46287437 59.60824335, 16.46246511 59.60807076)'
virtual_way/107153162:0-380-220,virtual_way/24462486:1-380,virtual_way/24462486:1-220,380,220,3397,'LINESTRING (6.6362207 51.62203354, 6.63592878 51.62183433)'
virtual_way/107175372:0-380-220,virtual_way/107175372:0-380,virtual_way/107175372:0-220,380,220,3397,'LINESTRING (6.70405241 51.55849942, 6.70376059 51.55830038)'
virtual_way/107175828:0-380-220,virtual_way/107175828:0-380,virtual_way/107175828:0-220,380,220,3397,'LINESTRING (6.64653254 51.60721639, 6.64624066 51.60701721)'
virtual_way/107175828:1-380-220,virtual_way/107175828:1-380,virtual_way/107175828:1-220,380,220,3397,'LINESTRING (6.65978005 51.59964748, 6.65948816 51.59944832)'
virtual_way/107244437:0-220-150,virtual_way/107244437:0-220,virtual_way/107244437:0-150,220,150,492,'LINESTRING (9.61161175 46.58190337, 9.61137111 46.58206792)'
virtual_way/107244437:0-380-150,virtual_way/209181215:1-380,virtual_way/107244437:0-150,380,150,1699,'LINESTRING (9.61169774 46.58212966, 9.61137111 46.58206792)'
virtual_way/107244437:0-380-220,virtual_way/209181215:1-380,virtual_way/107244437:0-220,380,220,1699,'LINESTRING (9.61169774 46.58212966, 9.61161175 46.58190337)'
virtual_way/109505609:0-380-220,virtual_relation/1109593:a:1-380,virtual_way/109083561:0-220,380,220,10189,'LINESTRING (7.36795125 51.62896995, 7.36765611 51.62877256)'
virtual_way/1098227268:0-400-220,virtual_way/1098227418:1-400,virtual_way/1098227271:1-220,400,220,2458,'LINESTRING (14.90934425 50.95008719, 14.90902283 50.94990979)'
virtual_way/1118659219:1-380-220,virtual_way/1118659219:1-380,virtual_way/1118659219:1-220,380,220,3397,'LINESTRING (6.82126055 50.93529908, 6.82097206 50.93510032)'
virtual_way/1131994897:1-145-132,virtual_way/51010900:0-145,virtual_way/1131994897:1-132,145,132,162,'LINESTRING (13.24190507 60.45057508, 13.24150253 60.45039312)'
virtual_way/118655806:1-225-220,virtual_way/118655806:1-225,virtual_way/204804555:1-220,225,220,503,'LINESTRING (4.76553878 50.13867169, 4.76526362 50.13846791)'
virtual_way/118991395:0-420-132,virtual_way/118991395:0-420,virtual_way/588161633:1-132,420,132,7508,'LINESTRING (15.43531011 67.10029969, 15.43478587 67.10012351)'
virtual_way/119019122:0-400-380,virtual_way/119019122:0-400,virtual_way/199901909:1-380,400,380,1788,'LINESTRING (17.09997852 47.90989508, 17.09966948 47.90972352)'
virtual_way/1236351095:0-400-132,virtual_way/126987035:0-400,virtual_way/216879727:0-132,400,132,5363,'LINESTRING (-1.05408585 39.21361072, -1.0542961 39.21339296)'
virtual_way/1257912689:1-400-150,virtual_way/1426279070:1-400,virtual_way/1257912689:1-150,400,150,1788,'LINESTRING (-8.09253155 41.6886344, -8.09272397 41.68840324)'
virtual_way/1264466168:1-380-220,virtual_way/22980164:1-380,virtual_way/617568395:0-220,380,220,5095,'LINESTRING (13.51501578 52.61950085, 13.51468766 52.61931969)'
virtual_way/127528721:1-220-132,virtual_way/127528721:1-220,virtual_way/127249086:1-132,220,132,1475,'LINESTRING (-0.46487368 39.56130449, -0.4650868 39.56108802)'
virtual_way/1278052879:0-420-300,virtual_way/1278052879:0-420,virtual_way/158612365:0-300,420,300,7508,'LINESTRING (7.04900769 61.18174033, 7.04863249 61.18154153)'
virtual_way/1306502956:0-220-132,virtual_way/1306502956:0-220,virtual_way/100770982:1-132,220,132,984,'LINESTRING (10.91652814 43.26479026, 10.91626461 43.26460114)'
virtual_way/1323054981:0-400-150,virtual_way/1323054981:0-400,virtual_way/1323054981:0-150,400,150,1788,'LINESTRING (-7.77735517 37.35351313, -7.77753943 37.35328187)'
virtual_way/1346026649:1-400-225,virtual_way/1346026649:1-400,virtual_way/86148821:0-225,400,225,1788,'LINESTRING (0.71693767 47.48103995, 0.71669233 47.48082684)'
virtual_way/1358358312:1-400-132,virtual_way/260017341:a:1-400,virtual_way/1358358312:1-132,400,132,5363,'LINESTRING (-3.05175027 40.04286999, -3.05195621 40.04264826)'
virtual_way/136215272:0-138-132,virtual_way/136215268:1-138,virtual_way/136215272:0-132,138,132,295,'LINESTRING (-0.33098192 40.04450405, -0.33119688 40.04428795)'
virtual_way/1369190556:0-220-132,virtual_way/1369190556:0-220,virtual_way/1369190556:0-132,220,132,492,'LINESTRING (-0.88588996 41.37627464, -0.88610704 41.37605756)'
virtual_way/1369190558:1-220-132,virtual_way/1369190558:1-220,virtual_way/1029030012:0-132,220,132,492,'LINESTRING (-0.82341229 41.54420872, -0.82363011 41.54399179)'
virtual_way/137265337:1-400-150,virtual_way/137265337:1-400,virtual_way/151077566:1-150,400,150,5363,'LINESTRING (-8.37406308 41.40530804, -8.37425382 41.40507634)'
virtual_way/139498124:1-220-132,virtual_way/139498124:1-220,virtual_way/139498129:1-132,220,132,1475,'LINESTRING (10.9372661 45.10939069, 10.9369938 45.10920191)'
virtual_way/140304287:1-400-220,virtual_way/358493679:0-400,virtual_way/140304287:1-220,400,220,1967,'LINESTRING (18.52458363 50.13325763, 18.52425459 50.13309051)'
virtual_way/141333190:1-220-132,virtual_way/141333193:1-220,virtual_way/141333190:1-132,220,132,1967,'LINESTRING (8.56089781 46.61247434, 8.56062638 46.61227966)'
virtual_way/141333198:0-220-132,virtual_way/141333193:0-220,virtual_way/141333190:0-132,220,132,1967,'LINESTRING (8.55297172 46.62313846, 8.55270027 46.62294376)'
virtual_way/143207666:0-220-132,virtual_way/143207669:0-220,virtual_way/143207666:0-132,220,132,1475,'LINESTRING (-0.77718979 41.70823131, -0.77740827 41.7080145)'
virtual_way/143483660:1-220-132,virtual_way/143483660:1-220,virtual_way/1259753032:1-132,220,132,984,'LINESTRING (-8.69445014 42.24210337, -8.69464164 42.24187119)'
virtual_way/143483670:0-220-132,virtual_way/143483670:0-220,virtual_way/1013278835:1-132,220,132,492,'LINESTRING (-8.62098649 42.26530882, -8.62117831 42.26507678)'
virtual_way/144158992:b:1-220-132,virtual_way/144158992:b:1-220,virtual_way/221130402:1-132,220,132,1475,'LINESTRING (-7.6533658 42.41426844, -7.6535616 42.41403816)'
virtual_way/144396435:1-400-220,virtual_way/144396408:1-400,virtual_way/144396435:1-220,400,220,3575,'LINESTRING (-7.68104716 41.11736494, -7.68123974 41.11713446)'
virtual_way/145302685:0-400-220,virtual_way/165666095:0-400,virtual_way/145302685:0-220,400,220,5363,'LINESTRING (0.86506382 40.95152784, 0.86484215 40.95131445)'
virtual_way/146812033:0-220-132,virtual_way/196488524:0-220,virtual_way/146812033:0-132,220,132,492,'LINESTRING (-1.88614346 43.31306903, -1.88636311 43.31285008)'
virtual_way/157809712:0-400-380,virtual_way/157809712:0-400,virtual_way/157331464:1-380,400,380,1788,'LINESTRING (13.21030006 50.52901077, 13.20998815 50.52882863)'
virtual_way/159068342:1-220-132,virtual_way/169496739:0-220,virtual_way/159067976:1-132,220,132,492,'LINESTRING (-8.41120232 43.32424591, -8.41139754 43.32401435)'
virtual_way/159071540:1-220-132,virtual_way/159071540:1-220,virtual_way/169454604:1-132,220,132,1475,'LINESTRING (-8.43028912 43.31761769, -8.43048424 43.31738609)'
virtual_way/160661275:a:1-220-132,virtual_way/160661275:a:1-220,virtual_way/160661277:1-132,220,132,1475,'LINESTRING (10.71234247 46.62266459, 10.71206323 46.62247541)'
virtual_way/163399867:0-225-220,virtual_way/669526533:1-225,virtual_way/163399866:0-220,225,220,503,'LINESTRING (6.05200112 46.23760318, 6.0519871 46.23779393)'
virtual_way/163399867:0-400-220,virtual_way/669526532:0-400,virtual_way/163399866:0-220,400,220,3575,'LINESTRING (6.05226151 46.23780407, 6.0519871 46.23779393)'
virtual_way/163399867:0-400-225,virtual_way/669526532:0-400,virtual_way/669526533:1-225,400,225,3575,'LINESTRING (6.05226151 46.23780407, 6.05200112 46.23760318)'
virtual_way/166885671:0-400-150,virtual_way/166885671:0-400,virtual_way/98524301:1-150,400,150,3575,'LINESTRING (9.88087387 56.64178005, 9.88052904 56.64158906)'
virtual_way/169288047:1-400-220,virtual_way/169293856:0-400,virtual_way/169288047:1-220,400,220,3575,'LINESTRING (16.9256949 52.29754797, 16.9253555 52.29737643)'
virtual_way/172279656:1-400-220,virtual_relation/9313232:a:1-400,virtual_way/172279656:1-220,400,220,5363,'LINESTRING (21.14417631 50.10516343, 21.14383824 50.10500413)'
virtual_way/188965945:1-420-400,virtual_way/585198893:1-420,virtual_way/188965945:1-400,420,400,1877,'LINESTRING (11.8174155 59.33759734, 11.8170337 59.33741146)'
virtual_way/192472229:0-220-132,virtual_way/1302963591:1-220,virtual_way/1302963593:1-132,220,132,984,'LINESTRING (-3.57950812 40.41210574, -3.57971325 40.411883)'
virtual_way/192648425:1-400-220,virtual_way/192648425:1-400,virtual_way/190110748:a:1-220,400,220,3575,'LINESTRING (-5.89495624 43.32577868, -5.89516105 43.32555176)'
virtual_way/195750078:0-220-132,virtual_way/195750078:0-220,virtual_relation/5651080:1-132,220,132,492,'LINESTRING (8.11876399 47.39222366, 8.11849021 47.39202794)'
virtual_way/196377179:1-400-220,virtual_way/196377176:1-400,virtual_way/196379340:0-220,400,220,3575,'LINESTRING (-3.05348139 43.33805966, -3.05369684 43.33783832)'
virtual_way/207800275:0-380-220,virtual_way/207800275:0-380,virtual_way/207800275:0-220,380,220,3397,'LINESTRING (7.09522855 50.58379301, 7.09494102 50.58359492)'
virtual_way/208105588:0-380-150,virtual_way/1200670020:1-380,virtual_way/208105588:0-150,380,150,3397,'LINESTRING (9.91318285 46.48294806, 9.9129072 46.4827568)'
virtual_way/209111683:0-220-132,virtual_way/209111683:1-220,virtual_way/969835968:1-132,220,132,984,'LINESTRING (8.32026235 46.50280707, 8.31999235 46.50261178)'
virtual_way/209181213:1-380-220,virtual_way/209181213:1-380,virtual_way/76706345:1-220,380,220,1699,'LINESTRING (9.56351833 46.66467227, 9.56324299 46.66448014)'
virtual_way/211518749:1-220-132,virtual_way/211518749:1-220,virtual_way/211518751:1-132,220,132,984,'LINESTRING (7.76234089 45.12134737, 7.76207951 45.12115055)'
virtual_way/215588442:0-380-220,virtual_way/215588442:0-380,virtual_way/215588442:0-220,380,220,3397,'LINESTRING (6.52585701 51.75334291, 6.52556474 51.75314343)'
virtual_way/227647614:1-145-132,virtual_way/227665115:1-145,virtual_way/227647614:1-132,145,132,162,'LINESTRING (-3.21434693 53.98256529, -3.21460587 53.98234371)'
virtual_way/24479976:0-380-220,virtual_way/24479976:0-380,virtual_way/24479976:0-220,380,220,3397,'LINESTRING (6.70951501 51.36172752, 6.70922439 51.36152848)'
virtual_way/253385905:0-220-132,virtual_way/253385905:0-220,virtual_relation/7220349:1-132,220,132,492,'LINESTRING (9.383216 47.06768548, 9.38297242 47.06784948)'
virtual_way/253385905:0-380-132,virtual_way/253385905:0-380,virtual_relation/7220349:1-132,380,132,1699,'LINESTRING (9.3833018 47.06791189, 9.38297242 47.06784948)'
virtual_way/253385905:0-380-220,virtual_way/253385905:0-380,virtual_way/253385905:0-220,380,220,1699,'LINESTRING (9.3833018 47.06791189, 9.383216 47.06768548)'
virtual_way/25422088:1-400-132,virtual_way/25422088:1-400,virtual_way/100821389:0-132,400,132,5363,'LINESTRING (0.7230521 51.99860281, 0.72278466 51.99838973)'
virtual_way/25788425:1-380-220,virtual_way/25788425:1-380,virtual_way/25788425:1-220,380,220,3397,'LINESTRING (6.85620562 51.67983393, 6.85591238 51.67963527)'
virtual_way/264531764:0-400-132,virtual_way/100773227:1-400,virtual_way/264531764:0-132,400,132,5363,'LINESTRING (0.47302527 51.52216281, 0.47276157 51.52194919)'
virtual_way/264541282:0-420-132,virtual_way/1000512859:1-420,virtual_way/264541284:0-132,420,132,7508,'LINESTRING (6.1133934 58.88625091, 6.11304774 58.88605003)'
virtual_way/264541288:0-420-132,virtual_way/285498848:1-420,virtual_way/264541288:0-132,420,132,7508,'LINESTRING (6.30250065 59.01801231, 6.30215266 59.01781189)'
virtual_way/271039582:0-220-132,virtual_way/271039582:0-220,virtual_way/458462511:1-132,220,132,984,'LINESTRING (-1.91463759 43.27488681, -1.91485701 43.27466779)'
virtual_way/287684721:1-420-400,virtual_way/287684721:1-420,virtual_way/280827026:1-400,420,400,1877,'LINESTRING (12.05982747 63.17683668, 12.05939533 63.17665112)'
virtual_way/290396036:1-420-300,virtual_way/290396036:1-420,virtual_way/290393695:1-300,420,300,7508,'LINESTRING (8.47805206 62.71502359, 8.47764904 62.71482831)'
virtual_way/290396037:0-420-300,virtual_way/292009074:0-420,virtual_way/290396037:0-300,420,300,7508,'LINESTRING (8.63889936 62.84886464, 8.63849354 62.84866976)'
virtual_way/292009073:0-420-300,virtual_way/292009073:0-420,virtual_way/292009076:0-300,420,300,7508,'LINESTRING (8.60309571 62.84244149, 8.6026902 62.84224652)'
virtual_way/292009081:0-420-300,virtual_way/292009075:1-420,virtual_way/292009081:0-300,420,300,7508,'LINESTRING (8.49988619 62.74863402, 8.49948259 62.74843879)'
virtual_way/292593505:1-420-400,virtual_way/400886663:0-420,virtual_way/292593505:1-400,420,400,1877,'LINESTRING (17.46479525 68.08181863, 17.46423415 68.08164857)'
virtual_way/30419417:1-380-220,virtual_way/30419417:1-380,virtual_way/259468196:1-220,380,220,3397,'LINESTRING (11.88140417 53.08345411, 11.88107943 53.08326849)'
virtual_way/31193726:1-220-132,virtual_way/193445970:a:1-220,virtual_way/31193726:1-132,220,132,1967,'LINESTRING (9.44447859 45.63727733, 9.44420884 45.63708477)'
virtual_way/32672606:1-380-220,virtual_relation/12479461:a:1-380,virtual_way/32672606:1-220,380,220,6793,'LINESTRING (7.42771352 51.42891032, 7.42741938 51.42871308)'
virtual_way/32950166:0-380-220,virtual_way/32950166:0-380,virtual_way/32950166:0-220,380,220,3397,'LINESTRING (13.47658492 52.62972124, 13.47625688 52.62953996)'
virtual_way/336065215:1-220-132,virtual_way/375528311:1-220,virtual_way/338670449:1-132,220,132,492,'LINESTRING (9.0928975 45.50165798, 9.09262965 45.50146452)'
virtual_way/340248507:1-220-132,virtual_way/91679026:1-220,virtual_way/1271671195:1-132,220,132,984,'LINESTRING (-6.08700528 40.01028353, -6.08720085 40.01005586)'
virtual_way/34897791:0-380-220,virtual_way/22766037:0-380,virtual_way/34897791:0-220,380,220,5095,'LINESTRING (6.89433064 50.84802879, 6.89404236 50.84783021)'
virtual_way/34942575:0-380-220,virtual_relation/1141616:a:1-380,virtual_way/34942575:0-220,380,220,8491,'LINESTRING (13.69468231 52.56056824, 13.6943539 52.56038757)'
virtual_way/35164077:1-380-220,virtual_way/35164077:0-380,virtual_way/41389619:0-220,380,220,5095,'LINESTRING (6.62179194 51.05467131, 6.62150358 51.05447206)'
virtual_way/365587953:0-220-150,virtual_way/1178282957:0-220,virtual_way/365587953:0-150,220,150,1967,'LINESTRING (8.91280585 47.17865591, 8.91253022 47.17846218)'
virtual_way/381950155:1-380-220,virtual_way/381950155:1-380,virtual_way/149815387:1-220,380,220,5095,'LINESTRING (7.50021245 50.3455787, 7.49992466 50.34538161)'
virtual_way/399284294:1-220-132,virtual_way/399284294:1-220,virtual_way/399284299:1-132,220,132,1475,'LINESTRING (-3.88572491 40.46622171, -3.88592915 40.46599836)'
virtual_way/42509126:1-380-220,virtual_way/42509126:1-380,virtual_way/42509126:1-220,380,220,3397,'LINESTRING (7.45673016 51.66034398, 7.45643444 51.66014682)'
virtual_way/427453398:0-400-132,virtual_way/145181917:0-400,virtual_way/171642117:0-132,400,132,5363,'LINESTRING (-0.5148958 39.5209994, -0.51510865 39.52078282)'
virtual_way/42920999:0-380-220,virtual_way/25028229:1-380,virtual_way/25028229:1-220,380,220,5095,'LINESTRING (7.14798891 51.50480913, 7.1476955 51.50461119)'
virtual_way/461199931:1-225-220,virtual_way/176700313:0-225,virtual_way/461199931:1-220,225,220,503,'LINESTRING (5.99460007 46.18632532, 5.99434013 46.18612428)'
virtual_way/47247862:0-400-380,virtual_way/47247862:0-400,virtual_way/83947313:1-380,400,380,1788,'LINESTRING (16.08836092 48.74608616, 16.08805008 48.74591184)'
virtual_way/491674882:1-220-132,virtual_way/288005003:1-220,virtual_way/491674882:1-132,220,132,492,'LINESTRING (9.08074521 47.12921067, 9.08050039 47.12937398)'
virtual_way/491674882:1-380-132,virtual_way/288005003:1-380,virtual_way/491674882:1-132,380,132,1699,'LINESTRING (9.0808298 47.12943731, 9.08050039 47.12937398)'
virtual_way/491674882:1-380-220,virtual_way/288005003:1-380,virtual_way/288005003:1-220,380,220,1699,'LINESTRING (9.0808298 47.12943731, 9.08074521 47.12921067)'
virtual_way/548201546:1-420-132,virtual_way/548339557:0-420,virtual_way/548201546:1-132,420,132,7508,'LINESTRING (5.82733125 61.86715431, 5.82695577 61.86695231)'
virtual_way/548201579:1-420-132,virtual_way/548201574:0-420,virtual_way/548201579:1-132,420,132,7508,'LINESTRING (5.28484791 61.75696393, 5.28447717 61.75676059)'
virtual_way/550914862:1-420-300,virtual_way/550914862:1-420,virtual_way/287112084:1-300,420,300,3754,'LINESTRING (9.81952582 59.72768178, 9.81915068 59.72749043)'
virtual_way/551307201:0-420-132,virtual_way/551307201:0-420,virtual_way/548201546:0-132,420,132,7508,'LINESTRING (5.8212061 61.83798304, 5.82083099 61.83778103)'
virtual_way/572898640:1-420-132,virtual_way/572898640:1-420,virtual_way/512415725:1-132,420,132,7508,'LINESTRING (15.45009336 67.11270092, 15.44956875 67.11252478)'
virtual_way/588443659:1-420-132,virtual_way/231380681:1-420,virtual_way/588443659:1-132,420,132,7508,'LINESTRING (13.59350415 66.71774622, 13.59300101 66.71756461)'
virtual_way/588443660:1-420-132,virtual_way/588709887:1-420,virtual_way/588443660:1-132,420,132,7508,'LINESTRING (13.5780551 66.68991504, 13.57755263 66.68973338)'
virtual_way/59099545:1-400-380,virtual_relation/6359580:a:1-400,virtual_way/59099545:1-380,400,380,7150,'LINESTRING (7.43160462 45.6030045, 7.43134218 45.6028069)'
virtual_way/60869542:1-380-220,virtual_way/60869542:1-380,virtual_way/60869542:1-220,380,220,3397,'LINESTRING (7.13628509 51.41729621, 7.13599229 51.41709824)'
virtual_way/61995958:0-220-132,virtual_way/297285201:0-220,virtual_way/61995958:0-132,220,132,1967,'LINESTRING (13.57322718 45.81568888, 13.57294232 45.81550719)'
virtual_way/635947176:0-254-220,virtual_way/635947176:0-254,virtual_way/1394025989:1-220,254,220,852,'LINESTRING (0.07484234 53.50117789, 0.07456946 53.50096331)'
virtual_way/637258485:1-225-220,virtual_way/1188527275:1-225,virtual_way/637258485:1-220,225,220,503,'LINESTRING (6.14110248 46.30573736, 6.14108875 46.30592812)'
virtual_way/637258485:1-380-220,virtual_way/637258485:1-380,virtual_way/637258485:1-220,380,220,1699,'LINESTRING (6.14137725 46.30574728, 6.14108875 46.30592812)'
virtual_way/637258485:1-380-225,virtual_way/637258485:1-380,virtual_way/1188527275:1-225,380,225,1699,'LINESTRING (6.14137725 46.30574728, 6.14110248 46.30573736)'
virtual_way/637258485:1-400-220,virtual_way/1188527275:1-400,virtual_way/637258485:1-220,400,220,1788,'LINESTRING (6.14136352 46.30593804, 6.14108875 46.30592812)'
virtual_way/637258485:1-400-225,virtual_way/1188527275:1-400,virtual_way/1188527275:1-225,400,225,1788,'LINESTRING (6.14136352 46.30593804, 6.14110248 46.30573736)'
virtual_way/637258485:1-400-380,virtual_way/1188527275:1-400,virtual_way/637258485:1-380,400,380,1788,'LINESTRING (6.14136352 46.30593804, 6.14137725 46.30574728)'
virtual_way/654282779:0-400-220,virtual_way/654282777:0-400,virtual_way/654282787:0-220,400,220,1788,'LINESTRING (19.22435831 50.2119089, 19.22402619 50.21174386)'
virtual_way/702532052:1-400-132,virtual_way/196216001:1-400,virtual_way/450064225:1-132,400,132,3575,'LINESTRING (-2.87524888 43.43299345, -2.87546529 43.43277249)'
virtual_way/72561691:1-135-132,virtual_way/72561693:0-135,virtual_way/72561691:1-132,135,132,302,'LINESTRING (9.33147213 45.57019066, 9.33120311 45.56999781)'
virtual_way/729102365:0-380-220,virtual_way/729102365:0-380,virtual_way/34942575:1-220,380,220,3397,'LINESTRING (13.5337841 52.61937546, 13.5334559 52.61919434)'
virtual_way/74261765:1-380-220,virtual_way/68677653:1-380,virtual_way/68677653:1-220,380,220,3397,'LINESTRING (7.25285111 51.40552531, 7.25255788 51.40532762)'
virtual_way/820461514:1-400-132,virtual_way/22978843:a:1-400,virtual_way/820461514:1-132,400,132,5363,'LINESTRING (-1.47332724 50.90529241, -1.47357883 50.9050746)'
virtual_way/828574554:0-220-132,virtual_way/170389316:1-220,virtual_way/828574554:0-132,220,132,1967,'LINESTRING (-5.90959017 39.45367211, -5.90978503 39.45344469)'
virtual_way/832127294:0-220-132,virtual_way/146812025:0-220,virtual_way/832127294:1-132,220,132,1475,'LINESTRING (-1.94753946 43.26185964, -1.94775872 43.26164056)'
virtual_way/83432354:1-220-132,virtual_way/74257735:1-220,virtual_way/83432354:1-132,220,132,1475,'LINESTRING (9.3113314 45.55947992, 9.31106251 45.55928702)'
virtual_way/839953071:1-400-220,virtual_way/839953071:1-400,virtual_relation/5596461:1-220,400,220,1788,'LINESTRING (16.71126362 54.02520661, 16.71091078 54.02503459)'
virtual_way/841787388:0-400-150,virtual_way/399008275:0-400,virtual_way/399008274:0-150,400,150,3575,'LINESTRING (9.47639438 55.66503786, 9.47606002 55.66484584)'
virtual_way/844126092:1-380-220,virtual_way/844126092:1-380,virtual_way/906381479:1-220,380,220,6793,'LINESTRING (6.66992656 51.67632181, 6.66963414 51.67612269)'
virtual_way/907517160:0-400-380,virtual_way/907517160:0-400,virtual_way/907517163:1-380,400,380,1788,'LINESTRING (9.3222424 54.8059246, 9.3219158 54.8057322)'
virtual_way/912545945:1-220-132,virtual_way/209112350:1-220,virtual_way/616947454:1-132,220,132,2950,'LINESTRING (7.64732829 47.09176112, 7.64707921 47.09192116)'
virtual_way/912545945:1-380-132,virtual_way/912545952:0-380,virtual_way/616947454:1-132,380,132,3397,'LINESTRING (7.64740661 47.09198883, 7.64707921 47.09192116)'
virtual_way/912545945:1-380-220,virtual_way/912545952:0-380,virtual_way/209112350:1-220,380,220,3397,'LINESTRING (7.64740661 47.09198883, 7.64732829 47.09176112)'
virtual_way/91655773:1-380-220,virtual_way/91655781:1-380,virtual_way/91655753:1-220,380,220,3397,'LINESTRING (6.56773546 49.80051514, 6.56745469 49.80031572)'
way/100009331-400-132,way/100009331-400,way/100009331-132,400,132,3575,'LINESTRING (-4.13682103 51.0059389, -4.13706066 51.00571562)'
way/100077745-400-275,way/100077745-400,way/100077745-275,400,275,3575,'LINESTRING (-4.4632618 55.5763229, -4.463523 55.57609864)'
way/100087916-400-225,way/100087916-400,way/100087916-225,400,225,3575,'LINESTRING (5.83269552 43.69094739, 5.8324471 43.6907457)'
way/1000881525-400-225,way/1000881525-400,way/1000881525-225,400,225,3575,'LINESTRING (2.82483549 44.0379304, 2.82459623 44.03772175)'
way/100113593-380-132,way/100113593-380,virtual_way/100117212:0-132,380,132,3397,'LINESTRING (10.60353116 42.95870688, 10.60327001 42.95851691)'
way/100253768-380-132,way/100253768-380,virtual_way/100114994:1-132,380,132,10189,'LINESTRING (10.69676817 43.05187484, 10.69646033 43.05181623)'
way/100420146-220-132,way/100420146-220,way/100420146-132,220,132,492,'LINESTRING (12.24817543 45.42759959, 12.24794787 45.42777004)'
way/100420146-380-132,way/100420146-380,way/100420146-132,380,132,1699,'LINESTRING (12.24827041 45.42782379, 12.24794787 45.42777004)'
way/100420146-380-220,way/100420146-380,way/100420146-220,380,220,1699,'LINESTRING (12.24827041 45.42782379, 12.24817543 45.42759959)'
way/100500802-400-225,way/100500802-400,way/100500802-225,400,225,2514,'LINESTRING (6.29681113 46.08394146, 6.29655056 46.08374115)'
way/100648754-300-132,way/100648754-300,way/100648754-132,300,132,3017,'LINESTRING (9.67302455 59.11581334, 9.67265677 59.11562164)'
way/100771480-220-132,virtual_way/1306502956:1-220,way/100771480-132,220,132,1918,'LINESTRING (10.88674792 43.23210203, 10.88648463 43.23191283)'
way/100773252-400-132,way/100773252-400,way/100773252-132,400,132,1788,'LINESTRING (0.50677458 51.5129049, 0.50651077 51.51269136)'
way/100952845-220-132,virtual_way/120790013:0-220,way/100952845-132,220,132,2458,'LINESTRING (8.88457493 44.705688, 8.8843403 44.70585114)'
way/100952845-380-132,way/100952845-380,way/100952845-132,380,132,5095,'LINESTRING (8.88465514 44.70591513, 8.8843403 44.70585114)'
way/100952845-380-220,way/100952845-380,virtual_way/120790013:0-220,380,220,5095,'LINESTRING (8.88465514 44.70591513, 8.88457493 44.705688)'
way/101077623-400-275,way/101077623-400,way/101077623-275,400,275,1788,'LINESTRING (-1.48805436 53.40633716, -1.48831891 53.40611921)'
way/101082325-275-132,way/101082325-275,way/101082325-132,275,132,1844,'LINESTRING (-1.37809397 53.50200913, -1.37835962 53.50179141)'
way/1011084707-380-220,way/1011084707-380,way/1011084707-220,380,220,3397,'LINESTRING (10.09328191 52.31855118, 10.09297042 52.31836078)'
way/101312018-275-132,way/101312018-275,way/101312018-132,275,132,1844,'LINESTRING (-1.41392694 53.41590121, -1.41419192 53.41568342)'
way/101320612-400-132,way/101320612-400,way/101320612-132,400,132,8938,'LINESTRING (13.00420742 56.08031974, 13.00385259 56.08013724)'
way/1013436462-400-132,way/1013436462-400,way/1013436462-132,400,132,5363,'LINESTRING (19.8361369 66.95151922, 19.83558579 66.95135677)'
way/101346507-220-132,way/101346507-220,virtual_way/101346512:0-132,220,132,492,'LINESTRING (8.7683479 44.76596713, 8.76808466 44.76577276)'
way/101346546-380-132,way/101346546-380,way/101346546-132,380,132,5095,'LINESTRING (8.89524566 44.99051061, 8.89498093 44.99031659)'
way/101914781-400-220,way/101914781-400,way/101914781-220,400,220,3575,'LINESTRING (20.34815701 53.82761281, 20.34779121 53.82745161)'
way/101953901-400-220,way/101953901-400,virtual_way/1304852266:0-220,400,220,1788,'LINESTRING (-3.72297573 40.6007362, -3.72318088 40.60051319)'
way/1021376264-275-132,way/1021376264-275,way/1021376264-132,275,132,922,'LINESTRING (0.11482265 51.52097705, 0.11452432 51.52111812)'
way/1021376264-400-132,way/1021376264-400,way/1021376264-132,400,132,5363,'LINESTRING (0.11487002 51.52120839, 0.11452432 51.52111812)'
way/1021376264-400-275,way/1021376264-400,way/1021376264-275,400,275,5363,'LINESTRING (0.11487002 51.52120839, 0.11482265 51.52097705)'
way/102185362-220-132,way/102185362-220,way/102185362-132,220,132,1475,'LINESTRING (7.19325753 45.70095206, 7.19299549 45.70075389)'
way/102198808-400-132,way/102198808-400,way/102198808-132,400,132,5363,'LINESTRING (-2.32948808 55.66938661, -2.32976159 55.66916669)'
way/1022235514-220-132,way/1022235514-220,virtual_way/1022242596:1-132,220,132,984,'LINESTRING (15.10884091 59.28803214, 15.10854431 59.28820876)'
way/1022235514-400-132,way/1022235514-400,virtual_way/1022242596:1-132,400,132,3575,'LINESTRING (15.1089915 59.28825287, 15.10854431 59.28820876)'
way/1022235514-400-220,way/1022235514-400,way/1022235514-220,400,220,3575,'LINESTRING (15.1089915 59.28825287, 15.10884091 59.28803214)'
way/102287716-220-132,way/102287716-220,way/102287716-132,220,132,984,'LINESTRING (7.90415354 45.18483583, 7.903914 45.18499668)'
way/102287716-380-132,way/102287716-380,way/102287716-132,380,132,3397,'LINESTRING (7.9042304 45.18506361, 7.903914 45.18499668)'
way/102287716-380-220,way/102287716-380,way/102287716-220,380,220,3397,'LINESTRING (7.9042304 45.18506361, 7.90415354 45.18483583)'
way/102678997-220-150,way/102678997-220,way/102678997-150,220,150,1174,'LINESTRING (4.3752798 50.3970598, 4.37500487 50.39685511)'
way/1027086227-220-200,way/1027086227-220,virtual_way/1065910632:1-200,220,200,1475,'LINESTRING (-0.92740378 41.18519867, -0.92762014 41.18498147)'
way/1028850312-300-132,way/1028850312-300,way/1028850312-132,300,132,2011,'LINESTRING (5.19459823 60.36731864, 5.1942432 60.36711529)'
way/1028926498-400-220,way/1028926498-400,way/1028926498-220,400,220,3575,'LINESTRING (-0.84078531 41.03279886, -0.8410015 41.03258182)'
way/103007030-220-132,way/103007030-220,virtual_way/401916826:1-132,220,132,1475,'LINESTRING (7.59240656 45.74388205, 7.59214287 45.74368487)'
way/1030919428-220-132,way/1030919428-220,way/1030919428-132,220,132,590,'LINESTRING (-0.41831627 41.17246583, -0.41853432 41.17224971)'
way/103127417-220-132,way/103127417-220,virtual_way/265587533:1-132,220,132,1475,'LINESTRING (7.33339269 45.82500842, 7.33312956 45.82481061)'
way/103158873-220-132,way/103158873-220,virtual_way/199526008:0-132,220,132,2458,'LINESTRING (-7.28111868 42.34422741, -7.28138387 42.34435055)'
way/103158873-400-132,way/103158873-400,virtual_way/199526008:0-132,400,132,5363,'LINESTRING (-7.28110352 42.34446119, -7.28138387 42.34435055)'
way/103158873-400-220,way/103158873-400,way/103158873-220,400,220,5363,'LINESTRING (-7.28110352 42.34446119, -7.28111868 42.34422741)'
way/103264820-380-220,way/103264820-380,way/103264820-220,380,220,3397,'LINESTRING (8.87785093 45.47357685, 8.87776968 45.47334984)'
way/103272523-220-132,way/103272523-220,way/103272523-132,220,132,1967,'LINESTRING (7.76208813 45.13787367, 7.76182668 45.13767684)'
way/103306951-380-150,way/103306951-380,way/103306951-150,380,150,6793,'LINESTRING (16.68455924 40.73126268, 16.68428971 40.73108851)'
way/103381531-220-150,virtual_relation/6433063:1-220,virtual_relation/13165219:0-150,220,150,2458,'LINESTRING (17.32043044 40.53085224, 17.32023449 40.53103362)'
way/103381531-380-150,way/103381531-380,virtual_relation/13165219:0-150,380,150,5095,'LINESTRING (17.32053528 40.53107226, 17.32023449 40.53103362)'
way/103381531-380-220,way/103381531-380,virtual_relation/6433063:1-220,380,220,5095,'LINESTRING (17.32053528 40.53107226, 17.32043044 40.53085224)'
way/103386958-380-150,way/103386958-380,way/103386958-150,380,150,3397,'LINESTRING (18.1308649 40.16439563, 18.13067223 40.16457862)'
way/103418587-220-132,way/103418587-220,way/103418587-132,220,132,984,'LINESTRING (8.32587936 46.24298223, 8.32561063 46.24278692)'
way/103511952-400-220,way/103511952-400,way/103511952-220,400,220,5363,'LINESTRING (-6.62392392 42.58545188, -6.62412399 42.58522352)'
way/103549591-220-132,virtual_way/149187924:a:0-220,way/103549591-132,220,132,1967,'LINESTRING (11.93460196 46.03160828, 11.93427614 46.03155361)'
way/103653566-220-132,way/103653566-220,way/103653566-132,220,132,984,'LINESTRING (9.31483369 44.37016032, 9.31457042 44.36996728)'
way/103653567-220-132,way/103653567-220,virtual_way/117883936:0-132,220,132,590,'LINESTRING (7.62974854 43.82776895, 7.629514 43.82792935)'
way/103653567-225-132,virtual_way/333332920:1-225,virtual_way/117883936:0-132,225,132,590,'LINESTRING (7.62982263 43.82799714, 7.629514 43.82792935)'
way/103653567-225-220,virtual_way/333332920:1-225,way/103653567-220,225,220,503,'LINESTRING (7.62982263 43.82799714, 7.62974854 43.82776895)'
way/103653592-220-132,way/103653592-220,virtual_way/334458796:1-132,220,132,984,'LINESTRING (8.42873251 44.276244, 8.42849836 44.27640616)'
way/103653592-380-132,way/103653592-380,virtual_way/334458796:1-132,380,132,3397,'LINESTRING (8.42881031 44.27647154, 8.42849836 44.27640616)'
way/103653592-380-220,way/103653592-380,way/103653592-220,380,220,3397,'LINESTRING (8.42881031 44.27647154, 8.42873251 44.276244)'
way/103725268-220-132,way/103725268-220,way/103725268-132,220,132,1967,'LINESTRING (7.71021216 45.10254472, 7.70995105 45.10234776)'
way/103974936-220-132,virtual_way/90279825:1-220,way/103974936-132,220,132,492,'LINESTRING (8.6099226 45.69216686, 8.60965554 45.69197221)'
way/104020696-400-220,way/104020696-400,way/104020696-220,400,220,8938,'LINESTRING (2.11184914 41.61963974, 2.11162112 41.61942919)'
way/104114052-220-132,way/104114052-220,way/104114052-132,220,132,1475,'LINESTRING (8.25978236 46.04841366, 8.25951482 46.04821817)'
way/104239286-220-132,way/104239286-220,virtual_way/350936037:0-132,220,132,984,'LINESTRING (8.38119077 44.65682059, 8.38092937 44.65662525)'
way/104239342-220-132,way/104239342-220,way/104239342-132,220,132,984,'LINESTRING (8.05046667 45.19892292, 8.05020392 45.19872681)'
way/104239352-380-132,way/104239352-380,way/104239352-132,380,132,6793,'LINESTRING (8.19318293 45.23882384, 8.19291949 45.2386281)'
way/104321356-220-150,way/104321356-220,way/104321356-150,220,150,503,'LINESTRING (16.54468851 40.41696004, 16.54442077 40.41678541)'
way/104370242-400-220,way/104370242-400,way/104370242-220,400,220,5363,'LINESTRING (-8.35593427 43.16727048, -8.3561293 43.16703901)'
way/104481448-400-225,way/104481448-400,way/104481448-225,400,225,4022,'LINESTRING (4.9062309 43.45492144, 4.90598662 43.45471752)'
way/104524889-380-150,way/104524889-380,way/104524889-150,380,150,6793,'LINESTRING (5.26906482 50.53475158, 5.26878529 50.53454902)'
way/1047447425-380-220,way/1047447425-380,way/1047447425-220,380,220,3397,'LINESTRING (10.50676562 46.85892648, 10.50648587 46.85873679)'
way/105065132-380-220,way/105065132-380,way/105065132-220,380,220,3397,'LINESTRING (13.06677304 47.88791859, 13.06647831 47.8877358)'
way/1051033055-380-220,way/1051033055-380,way/1051033055-220,380,220,1699,'LINESTRING (13.21100635 47.37907393, 13.21071407 47.37889147)'
way/105141365-220-132,virtual_way/82558092:1-220,way/105141365-132,220,132,2950,'LINESTRING (7.93607089 45.23332167, 7.93606377 45.23351277)'
way/105141365-380-132,way/105141365-380,way/105141365-132,380,132,6793,'LINESTRING (7.93634051 45.23332696, 7.93606377 45.23351277)'
way/105141365-380-220,way/105141365-380,virtual_way/82558092:1-220,380,220,6793,'LINESTRING (7.93634051 45.23332696, 7.93607089 45.23332167)'
way/105141365-400-132,virtual_relation/6359580:c:1-400,way/105141365-132,400,132,3575,'LINESTRING (7.9363334 45.23351806, 7.93606377 45.23351277)'
way/105141365-400-220,virtual_relation/6359580:c:1-400,virtual_way/82558092:1-220,400,220,3575,'LINESTRING (7.9363334 45.23351806, 7.93607089 45.23332167)'
way/105141365-400-380,virtual_relation/6359580:c:1-400,way/105141365-380,400,380,6793,'LINESTRING (7.9363334 45.23351806, 7.93634051 45.23332696)'
way/105153418-220-132,way/105153418-220,way/105153418-132,220,132,1967,'LINESTRING (7.62999736 45.10804238, 7.62973651 45.10784522)'
way/105259481-400-132,way/105259481-400,way/105259481-132,400,132,3575,'LINESTRING (-3.09385163 43.32695377, -3.09406689 43.32673235)'
way/1054310285-400-220,way/1054310285-400,way/1054310285-220,400,220,1788,'LINESTRING (-7.4552017 40.1767481, -7.45539291 40.1765179)'
way/105515586-400-225,way/105515586-400,way/105515586-225,400,225,10725,'LINESTRING (-0.68196981 45.25828305, -0.68220072 45.25806679)'
way/105571340-400-225,way/105571340-400,way/105571340-225,400,225,7150,'LINESTRING (-0.60611803 45.67385184, -0.6063508 45.67363578)'
way/105630888-400-225,way/105630888-400,way/105630888-225,400,225,10725,'LINESTRING (-0.51868292 46.21886674, -0.51891813 46.21865089)'
way/105690676-400-225,way/105690676-400,way/105690676-225,400,225,7150,'LINESTRING (0.64902127 46.46588205, 0.64878048 46.46566875)'
way/105732933-220-132,way/105732933-220,way/105732933-132,220,132,1180,'LINESTRING (11.33962439 46.47675876, 11.3393437 46.4765712)'
way/105757795-220-132,way/105757795-220,virtual_way/209876069:1-132,220,132,984,'LINESTRING (8.17752656 44.07487352, 8.17726848 44.07467759)'
way/105783300-400-225,way/105783300-400,way/105783300-225,400,225,10725,'LINESTRING (1.62080973 46.45814119, 1.62056518 46.45793003)'
way/105801489-220-132,way/105801489-220,virtual_way/211081688:1-132,220,132,1475,'LINESTRING (11.39699449 46.49413259, 11.3967135 46.49394519)'
way/105840884-400-225,way/105840884-400,way/105840884-225,400,225,5363,'LINESTRING (-0.55111484 45.01056438, -0.55134533 45.01034839)'
way/105913465-400-225,way/105913465-400,way/105913465-225,400,225,10725,'LINESTRING (0.82277309 44.10282741, 0.82254081 44.10261431)'
way/1063258951-400-220,way/1063258951-400,way/1063258951-220,400,220,1788,'LINESTRING (15.05149807 46.37209912, 15.05120517 46.37192156)'
way/107204719-220-132,way/107204719-220,virtual_way/107236004:1-132,220,132,1475,'LINESTRING (9.410107 45.32938671, 9.40983887 45.32919403)'
way/107438024-380-132,way/107438024-380,virtual_way/357188494:0-132,380,132,3397,'LINESTRING (9.49375611 45.08689701, 9.49348886 45.08670452)'
way/1076001174-380-220,way/1076001174-380,way/1076001174-220,380,220,5095,'LINESTRING (7.17201816 51.55501151, 7.17172433 51.55481363)'
way/107681459-380-132,way/107681459-380,way/107681459-132,380,132,6793,'LINESTRING (10.48722224 43.55101577, 10.48695881 43.5508256)'
way/107683818-380-132,way/107683818-380,way/107683818-132,380,132,8491,'LINESTRING (10.69840122 43.83915256, 10.69813578 43.83896298)'
way/1078525352-220-132,way/1078525352-220,way/1078525352-132,220,132,492,'LINESTRING (-2.53941119 55.91747239, -2.53975326 55.9176059)'
way/1078525352-400-132,way/1078525352-400,way/1078525352-132,400,132,3575,'LINESTRING (-2.53937679 55.91770443, -2.53975326 55.9176059)'
way/1078525352-400-220,way/1078525352-400,way/1078525352-220,400,220,3575,'LINESTRING (-2.53937679 55.91770443, -2.53941119 55.91747239)'
way/108020416-220-150,virtual_relation/6040320:0-220,way/108020416-150,220,150,1475,'LINESTRING (16.02766026 39.98959524, 16.02746228 39.98977415)'
way/108020416-380-150,way/108020416-380,way/108020416-150,380,150,11887,'LINESTRING (16.0277596 39.98981681, 16.02746228 39.98977415)'
way/108020416-380-220,way/108020416-380,virtual_relation/6040320:0-220,380,220,11887,'LINESTRING (16.0277596 39.98981681, 16.02766026 39.98959524)'
way/108020695-220-150,virtual_relation/6040326:1-220,way/108020695-150,220,150,1475,'LINESTRING (16.02559689 39.96388038, 16.02533257 39.96370421)'
way/108050523-150-132,way/108050523-150,way/108050523-132,150,132,738,'LINESTRING (12.59749165 41.9513319, 12.59727806 41.9515035)'
way/108050523-220-132,way/108050523-220,way/108050523-132,220,132,738,'LINESTRING (12.59758207 41.95155642, 12.59727806 41.9515035)'
way/108050523-220-150,way/108050523-220,way/108050523-150,220,150,492,'LINESTRING (12.59758207 41.95155642, 12.59749165 41.9513319)'
way/108099552-400-225,way/108099552-400,way/108099552-225,400,225,5363,'LINESTRING (2.16126655 51.00007905, 2.16099799 50.99986922)'
way/108257952-220-150,way/108257952-220,virtual_way/1105516797:0-150,220,150,984,'LINESTRING (8.43337794 47.27126952, 8.43310361 47.27107458)'
...